LAMMPS (11 Aug 2017)
variable        nn equal 10762   #check correct density

#------------------------------- PART 1 OF SCRIPT ----------------------------------------
variable        duration        equal 1E7 #1E7 in supercomputer
variable        save_period     equal 10000000/100
variable	seed		equal 18331
variable	seed0		equal 18331+1

variable	ll		equal 58.36 #For a exact density of 0.7343

units          	lj
dimension       2
boundary        p p p
region          box  block   -58.36 58.36 -58.36 58.36 -0.5 0.5
create_box      1 box
Created orthogonal box = (-58.36 -58.36 -0.5) to (58.36 58.36 0.5)

mass            1 1

pair_style      lj/cut $(2^(1/6))
pair_style      lj/cut 1.1224620483093730172
pair_coeff      1 1 1.0 1.00 $(2^(1/6))
pair_coeff      1 1 1.0 1.00 1.1224620483093730172
pair_modify     shift yes

pair_write      1 1 500 r 0.1 3.0 table.txt LJ
  update every 1 steps, delay 10 steps, check yes

neighbor 	0.3 bin

create_atoms    1 random 10762 18331 box
Created 10762 atoms

fix 		1 all enforce2d

variable        scale equal 0.4 #check correct hex scaling factor
variable        r equal 3.25 #check correct radius; 3.25 for 37 atoms
# ------------------------------------- PART 2 OF SCRIPT ---------------------------------------
lattice         hex 0.4
Lattice spacing in x,y,z = 1.69904 2.94283 1.69904
region          mysphere1 sphere 0.0 0.0 0.0 $r side in
region          mysphere1 sphere 0.0 0.0 0.0 3.25 side in
region          mysphere2 sphere 0.0 0.0 0.0 $r side out
region          mysphere2 sphere 0.0 0.0 0.0 3.25 side out
region          mysphere3 sphere 0.0 0.0 0.0 $(v_r+(v_r*0.5)) side in
region          mysphere3 sphere 0.0 0.0 0.0 4.875 side in
region          mysphere4 sphere 0.0 0.0 0.0 $(v_r+(v_r*0.5)) side out
region          mysphere4 sphere 0.0 0.0 0.0 4.875 side out
delete_atoms    region mysphere3 compress yes
Deleted 194 atoms, new total = 10568
create_atoms    1 region mysphere1
Created 37 atoms

variable        N	equal count(all)
variable        N_	equal 10762-10605
create_atoms    1 random 157  18332 mysphere4
Created 157 atoms

minimize        1.0e-4 1.0e-6 1000 10000
Step Temp E_pair E_mol TotEng Press
0            0 5.0911053e+23            0 5.0911053e+23 2.4130469e+24
Loop time of 0.028652 on 32 procs for 203 steps with 10762 atoms

Minimization stats:
  Stopping criterion = energy tolerance
  Energy initial, next-to-last, final =
  Force two-norm initial, final = 1.68508e+31 24.175
  Force max component initial, final = 1.19152e+31 10.5815
  Final line search alpha, max atom move = 0.00310777 0.032885
  Iterations, force evaluations = 203 329

reset_timestep	0

group		IN  region mysphere1
37 atoms in group IN
group		OUT region mysphere2
10725 atoms in group OUT

fix             mynvt OUT nvt temp 0.025 0.025 $(100.0*dt)
fix             mynvt OUT nvt temp 0.025 0.025 0.5

dump            001 all atom 100000 dump.lammpstrj
dump_modify	001 sort id

dump            002 OUT atom 100000 dump-out.lammpstrj
dump_modify     002 sort id

thermo		100000
run		10000000
Step Temp E_pair E_mol TotEng Press
0            0  0.002361502            0  0.002361502   0.20306996
Averages over the last 51 of 101 rows, steps 5000000 to 10000000:
Temp E_pair E_mol TotEng Press
0.0249244 0.00544583 0 0.0303679 0.232504
Loop time of 376.61 on 32 procs for 10000000 steps with 10762 atoms
