LAMMPS (11 Aug 2017)
variable        duration        equal 1E7
variable        save_period     equal 10000000/100
variable	seed		equal 18331
variable	seed0		equal 18331+1

variable        nn equal 10217   #check correct density
variable	ll		equal 58.36

units          	lj
dimension       2
boundary        p p p
region          box  block   -58.36 58.36 -58.36 58.36 -0.5 0.5
create_box      1 box
Created orthogonal box = (-58.36 -58.36 -0.5) to (58.36 58.36 0.5)

mass            1 1

pair_style      lj/cut $(2^(1/6))
pair_style      lj/cut 1.1224620483093730172
pair_coeff      1 1 1.0 1.00 $(2^(1/6))
pair_coeff      1 1 1.0 1.00 1.1224620483093730172
pair_modify     shift yes
neighbor 	0.3 bin

create_atoms    1 random 10217 18331 box
Created 10217 atoms

fix 		1 all enforce2d

minimize        1.0e-4 1.0e-6 1000 10000
  update every 1 steps, delay 0 steps, check yes
Step Temp E_pair E_mol TotEng Press
0            0 5.3585318e+23            0 5.3585318e+23 2.4111815e+24
Loop time of 0.0455173 on 32 procs for 239 steps with 10217 atoms

Minimization stats:
  Stopping criterion = linesearch alpha is zero
  Energy initial, next-to-last, final =
  Force two-norm initial, final = 1.68508e+31 0.13853
  Force max component initial, final = 1.19152e+31 0.0500582
  Final line search alpha, max atom move = 0.0625 0.00312863
  Iterations, force evaluations = 239 699

reset_timestep	0

dump            001 all atom 100000 dump-liquid.lammpstrj
dump_modify	001 sort id

variable seed equal 27787
velocity all create 1.0 27787

fix             mynvt all nvt temp 0.025 0.025 $(100.0*dt)
fix             mynvt all nvt temp 0.025 0.025 0.5

thermo		100000
run		10000000
Step Temp E_pair E_mol TotEng Press
0            1 1.9512012e-08            0   0.99990214   0.74994139
Averages over the last 51 of 101 rows, steps 5000000 to 10000000:
Temp E_pair E_mol TotEng Press
0.0250339 0.0046826 0 0.029714 0.191737
Loop time of 368.281 on 32 procs for 10000000 steps with 10217 atoms
