LAMMPS (11 Aug 2017)
variable        nn equal 10000   #check correct density

#------------------------------- PART 1 OF SCRIPT ----------------------------------------
variable        duration        equal 1E9
variable        save_period     equal 1000000000/100
variable	seed		equal 18331
variable	seed0		equal 18331+1

variable	ll		equal 58.5

units          	lj
dimension       2
boundary        p p p
region          box  block   -58.5 58.5 -58.5 58.5 -0.5 0.5
create_box      1 box
Created orthogonal box = (-58.5 -58.5 -0.5) to (58.5 58.5 0.5)

mass            1 1

pair_style      lj/cut $(2^(1/6))
pair_style      lj/cut 1.1224620483093730172
pair_coeff      1 1 1.0 1.00 $(2^(1/6))
pair_coeff      1 1 1.0 1.00 1.1224620483093730172
pair_modify     shift yes

pair_write      1 1 500 r 0.1 3.0 table.txt LJ
  update every 1 steps, delay 10 steps, check yes

neighbor 	0.3 bin

create_atoms    1 random 10000 18331 box
Created 10000 atoms

fix 		1 all enforce2d

variable        scale equal 0.2 #check correct hex scaling factor
variable        r equal 3.75 #check correct radius
# ------------------------------------- PART 2 OF SCRIPT ---------------------------------------
lattice         hex 0.2
Lattice spacing in x,y,z = 2.40281 4.16179 2.40281
region          mysphere1 sphere 0.0 0.0 0.0 $r side in
region          mysphere1 sphere 0.0 0.0 0.0 3.75 side in
region          mysphere2 sphere 0.0 0.0 0.0 $r side out
region          mysphere2 sphere 0.0 0.0 0.0 3.75 side out
region          mysphere3 sphere 0.0 0.0 0.0 $(v_r+(v_r*0.5)) side in
region          mysphere3 sphere 0.0 0.0 0.0 5.625 side in
region          mysphere4 sphere 0.0 0.0 0.0 $(v_r+(v_r*0.5)) side out
region          mysphere4 sphere 0.0 0.0 0.0 5.625 side out
delete_atoms    region mysphere3 compress yes
Deleted 428 atoms, new total = 9572
create_atoms    1 region mysphere1
Created 55 atoms

variable        N	equal count(all)
variable        N_	equal 10000-9627
create_atoms    1 random 373  18332 mysphere4
Created 373 atoms

minimize        1.0e-4 1.0e-6 1000 10000
Step Temp E_pair E_mol TotEng Press
0            0 5.2880274e+23            0 5.2880274e+23 2.3177854e+24
Loop time of 0.039226 on 32 procs for 231 steps with 10000 atoms

Minimization stats:
  Stopping criterion = linesearch alpha is zero
  Energy initial, next-to-last, final =
  Force two-norm initial, final = 1.63339e+31 0.113135
  Force max component initial, final = 1.15498e+31 0.03928
  Final line search alpha, max atom move = 0.03125 0.0012275
  Iterations, force evaluations = 231 659

reset_timestep	0

group		IN  region mysphere1
55 atoms in group IN
group		OUT region mysphere2
9945 atoms in group OUT

fix             mynvt OUT nvt temp 0.025 0.025 $(100.0*dt)
fix             mynvt OUT nvt temp 0.025 0.025 0.5

dump            001 all atom 10000000 dump.lammpstrj
dump_modify	001 sort id

dump            002 OUT atom 10000000 dump-out.lammpstrj
dump_modify     002 sort id

thermo		10000000
run		1000000000
Step Temp E_pair E_mol TotEng Press
0            0 5.7031075e-09            0 5.7031075e-09 1.7814104e-05
Averages over the last 51 of 101 rows, steps 500000000 to 1000000000:
Temp E_pair E_mol TotEng Press
0.0248631 0.00470818 0 0.0295688 0.186171
Loop time of 36840.3 on 32 procs for 1000000000 steps with 10000 atoms
