LAMMPS (11 Aug 2017)
variable        duration        equal 1E7
variable        save_period     equal 10000000/100
variable	seed		equal 18331
variable	seed0		equal 18331+1

variable        nn equal 10762   #check correct density
variable	ll		equal 58.36

units          	lj
dimension       2
boundary        p p p
region          box  block   -58.36 58.36 -58.36 58.36 -0.5 0.5
create_box      1 box
Created orthogonal box = (-58.36 -58.36 -0.5) to (58.36 58.36 0.5)

mass            1 1

pair_style      lj/cut $(2^(1/6))
pair_style      lj/cut 1.1224620483093730172
pair_coeff      1 1 1.0 1.00 $(2^(1/6))
pair_coeff      1 1 1.0 1.00 1.1224620483093730172
pair_modify     shift yes
neighbor 	0.3 bin

create_atoms    1 random 10762 18331 box
Created 10762 atoms

fix 		1 all enforce2d

minimize        1.0e-4 1.0e-6 1000 10000
  update every 1 steps, delay 0 steps, check yes
Step Temp E_pair E_mol TotEng Press
0            0 5.0911053e+23            0 5.0911053e+23 2.4130469e+24
Loop time of 0.0527844 on 32 procs for 277 steps with 10762 atoms

Minimization stats:
  Stopping criterion = energy tolerance
  Energy initial, next-to-last, final =
  Force two-norm initial, final = 1.68508e+31 0.580473
  Force max component initial, final = 1.19152e+31 0.0622932
  Final line search alpha, max atom move = 0.03125 0.00194666
  Iterations, force evaluations = 277 775

reset_timestep	0

dump            001 all atom 100000 dump-liquid.lammpstrj
dump_modify	001 sort id

variable seed equal 27787
velocity all create 1.0 27787

fix             mynvt all nvt temp 0.025 0.025 $(100.0*dt)
fix             mynvt all nvt temp 0.025 0.025 0.5

thermo		100000
run		10000000
Step Temp E_pair E_mol TotEng Press
0            1 4.6244935e-07            0   0.99990754   0.79087516
Averages over the last 51 of 101 rows, steps 5000000 to 10000000:
Temp E_pair E_mol TotEng Press
0.0250021 0.00531904 0 0.0303188 0.228417
Loop time of 384.388 on 32 procs for 10000000 steps with 10762 atoms
